# m062x/Def2SVP nosymm scf=(xqc,maxconventionalcycles=400) opt=(TS,CalcFC,noeigentest,maxcycles=200) freq=NoRaman CPHF=Grid=Fine

continuing search

0 1
O                     2.459192      3.612952     -1.270150
H                     2.142015      4.217315     -0.586480
C                    -0.447837      2.156775      5.008396
H                    -0.606243      1.268535      5.604645
C                     0.387946      2.141253      3.905818
H                     0.902265      1.235653      3.617942
O                     1.642327      4.338647      1.309768
C                     2.953694      2.104519      0.607504
H                     3.371745      1.104730      0.698090
H                     3.738135      2.845804      0.769365
C                     2.328128      2.309669     -0.768603
H                     2.841657      1.658915     -1.477637
H                     1.279830      1.986817     -0.725202
C                     0.565744      3.303735      3.161103
C                     1.454238      3.341499      1.964263
O                    -2.558346      4.471941      6.820189
C                    -1.103064      3.330320      5.366440
C                    -1.992129      3.289949      6.563364
O                     2.013553      2.166714      1.697104
C                    -0.090625      4.476999      3.518326
H                     0.065145      5.365004      2.920983
C                    -0.925719      4.492460      4.621566
H                    -1.442455      5.397149      4.907574
O                    -2.166071      2.301150      7.229776
C                    -4.851707      4.199344      7.580648
H                    -5.220969      4.917279      6.846172
H                    -5.464299      4.297317      8.485963
C                    -3.425591      4.542353      7.957144
H                    -3.050607      3.872280      8.731583
H                    -3.367307      5.570943      8.309725
O                    -4.983180      2.924787      7.002057
H                    -4.343464      2.324194      7.402562


