# m062x/Def2TZVP nosymm scf=xqc freq=NoRaman CPHF=Grid=Fine SCRF=(Solvent=1,2-EthaneDiol,Read)

tpl

0 1
C           1.349  -0.296   0.612
C           0.315   0.299  -0.299
C          -1.038   0.403   0.323
O          -1.561  -0.817   0.716
H           1.592   0.354   1.466
H           1.052  -1.310   0.912
H           2.295  -0.380   0.002
H           0.626   1.297  -0.640
H           0.235  -0.340  -1.197
H          -1.039   1.128   1.188
H          -1.724   0.844  -0.428
H          -2.100  -1.182  -0.037

PDENS=7.0
