# m062x/Def2TZVP nosymm scf=xqc freq=NoRaman CPHF=Grid=Fine SCRF=(Solvent=1,2-EthaneDiol,Read)

tpl

0 1
C          -1.340  -0.333   0.130
C          -0.268   0.327  -0.677
C           1.049   0.425   0.050
O           1.504  -0.846   0.381
H          -1.399   0.071   1.173
H          -2.330  -0.103  -0.324
H          -1.256  -1.443   0.130
H          -0.586   1.371  -0.907
H          -0.112  -0.237  -1.604
H           1.787   0.873  -0.645
H           1.001   1.103   0.928
H           1.949  -1.209  -0.428

PDENS=7.0
