# m062x/Def2TZVP nosymm scf=xqc freq=NoRaman CPHF=Grid=Fine SCRF=(Solvent=1,2-EthaneDiol,Read)

tpl

0 1
C          -1.259   0.413  -0.182
C          -0.355  -0.505   0.600
C           1.016  -0.440  -0.075
O           1.404   0.901   0.006
H          -1.849  -0.243  -0.874
H          -1.906   1.017   0.483
H          -0.680   1.133  -0.794
H          -0.731  -1.522   0.693
H          -0.200  -0.081   1.632
H           0.847  -0.728  -1.149
H           1.728  -1.131   0.377
H           1.985   1.186  -0.716

PDENS=7.0
