# m062x/Def2TZVP nosymm scf=xqc opt guess=mix

radical calculation of fragment 1 from fragment pair [1, 4] and ldpe.com

0 2
C       5.463697    5.106407    3.825849
C       6.193620    3.783027    3.627691
H       6.078011    5.912024    3.416601
H       4.530761    5.110994    3.251649
H       7.156003    3.796331    4.143484
H       6.383516    3.587008    2.571986
H       5.620999    2.941815    4.021618