# scf=(xqc,maxconventionalcycles=400) opt=(TS,CalcFC,noeigentest,maxcycles=200,modredundant) freq=noraman nosymm geom=connectivity cphf=grid=fine m062x/def2svp SCRF=(Solvent=MethylPropanoate,Read)

from US seed

-1 1 
 N    -1     42.84600000   36.30500000   36.33300000
 H     0     41.94200000   36.58500000   36.64800000
 C    -1     42.94200000   34.93400000   35.70200000
 H     0     43.83200000   34.44200000   36.06400000
 C     0     41.59700000   34.30900000   35.97000000
 H     0     41.46500000   34.25000000   37.07100000
 H     0     40.79800000   34.98800000   35.60200000
 C    -1     43.14300000   35.01800000   34.17200000
 O    -1     42.42097648   35.78515102   33.48371815
 N    -1     44.61600000   42.80500000   40.22900000
 H     0     45.30800000   42.29900000   39.72000000
 C    -1     43.28800000   42.90200000   39.71400000
 H     0     42.73100000   43.50300000   40.41700000
 C     0     43.33300000   43.58000000   38.30100000
 H     0     43.57400000   44.64400000   38.43800000
 H     0     44.16400000   43.12200000   37.67000000
 C     0     42.09500000   43.46200000   37.38800000
 C     0     40.83700000   43.96700000   37.55300000
 H     0     40.42300000   44.59100000   38.27600000
 N     0     39.96700000   43.44600000   36.58600000
 H     0     38.96000000   43.62400000   36.44400000
 C     0     40.72200000   42.63200000   35.70500000
 C     0     42.04100000   42.53800000   36.21600000
 C     0     42.97900000   41.92900000   35.41800000
 H     0     44.05800000   41.91000000   35.68800000
 C     0     42.61100000   41.24900000   34.25800000
 H     0     43.33200000   40.69600000   33.60400000
 C     0     40.32100000   41.89900000   34.56600000
 H     0     39.29800000   41.86300000   34.38500000
 C     0     41.25800000   41.19800000   33.89500000
 H     0     40.81900000   40.49600000   33.20100000
 C    -1     42.67100000   41.52600000   39.64100000
 O     0     43.34700000   40.53600000   39.40300000
 N    -1     41.35700000   41.54000000   40.03900000
 H     0     40.84400000   42.44000000   40.44100000
 C    -1     40.45100000   40.39000000   40.07100000
 H     0     39.58700000   40.84200000   40.60400000
 C     0     39.95600000   39.87700000   38.69900000
 H     0     39.57500000   40.73500000   38.04800000
 H     0     40.80800000   39.41200000   38.15900000
 O     0     38.89100000   38.89100000   38.89100000
 H     0     37.91200000   39.79900000   37.29900000
 C    -1     41.01500000   39.27400000   40.93800000
 O     0     40.99500000   39.41800000   42.16500000
 N    -1     41.45600000   38.15700000   40.36100000
 H     0     41.29200000   38.09600000   39.29600000
 C    -1     42.09800000   37.08500000   41.00800000
 H     0     41.43860842   36.68975308   41.75223291
 C     0     42.49700000   35.95700000   40.06000000
 H     0     41.76300000   35.83100000   39.27700000
 H     0     43.45500000   36.05400000   39.57100000
 C     0     42.48600000   34.56000000   40.77100000
 H     0     41.56200000   34.38600000   41.30400000
 H     0     43.21200000   34.52100000   41.56900000
 S     0     42.72800000   33.22200000   39.54100000
 C     0     41.08000000   32.38700000   39.58400000
 H     0     40.81200000   31.90100000   40.41200000
 H     0     40.27400000   33.09200000   39.44600000
 H     0     41.05600000   31.72600000   38.69200000
 C    -1     36.13400000   38.49300000   45.43700000
 H     0     35.37411815   38.90123267   46.07010793
 C     0     35.50700000   38.07200000   44.08200000
 H     0     34.95400000   38.97700000   43.75000000
 H     0     34.72000000   37.31500000   44.28400000
 C     0     36.45800000   37.63800000   43.08700000
 C     0     37.00200000   38.49600000   42.18200000
 H     0     36.57400000   39.52000000   42.13100000
 N     0     37.98300000   37.85100000   41.49100000
 H     0     38.57800000   38.25900000   40.64600000
 C     0     37.97100000   36.52700000   41.91700000
 C     0     36.91800000   36.33100000   42.84000000
 C     0     36.52900000   35.11000000   43.34100000
 H     0     35.73300000   35.06500000   44.06900000
 C     0     37.33100000   34.00700000   42.95900000
 H     0     37.07500000   32.95100000   43.19400000
 C     0     38.83400000   35.47800000   41.57400000
 H     0     39.64100000   35.52300000   40.81200000
 C     0     38.46700000   34.21700000   42.14100000
 H     0     39.08500000   33.36800000   41.77800000
 C    -1     29.73900000   43.95500000   37.18800000
 H     0     29.94500000   43.68600000   36.13000000
 C     0     30.92800000   44.07300000   38.12400000
 H     0     30.59200000   44.20400000   39.21800000
 H     0     31.43000000   45.03400000   37.78100000
 C     0     32.06700000   43.03100000   37.87200000
 O     0     32.03500000   42.26500000   36.81300000
 O     0     33.10900000   43.15200000   38.67800000
 C    -1     34.91300000   44.30900000   35.56900000
 H     0     34.87800000   44.63800000   36.51200000
 C     0     34.80800000   42.80800000   35.52800000
 H     0     33.77600000   42.52800000   35.81600000
 H     0     34.80700000   42.46000000   34.51200000
 N     0     35.28200000   41.59400000   37.71200000
 H     0     34.48400000   42.02500000   38.15400000
 C     0     35.73800000   42.07900000   36.47300000
 C     0     36.22700000   40.72300000   38.19600000
 H     0     36.26000000   40.20300000   39.17200000
 N     0     37.15400000   40.50800000   37.30300000
 C     0     36.91100000   41.38200000   36.25600000
 H     0     37.62200000   41.28000000   35.42500000
 C    -1     36.32500000   44.74000000   35.05100000
 O    -1     37.36100000   44.50400000   35.62400000
 C     0     39.37500000   38.57600000   35.37800000
 O     0     40.00800000   37.92600000   33.27700000
 C     0     38.95500000   37.74700000   34.20200000
 O     0     45.40800000   39.66700000   29.14500000
 C     0     39.73000000   37.99000000   31.93200000
 O     0     44.04400000   40.55000000   27.57800000
 C     0     40.88400000   38.35200000   31.01500000
 O     0     38.58800000   37.78300000   31.44100000
 C     0     42.19400000   38.37900000   31.52400000
 C     0     43.26200000   38.93600000   30.75900000
 O     0     34.22800000   34.45400000   40.18900000
 C     0     43.06500000   39.38600000   29.43400000
 O     0     40.53300000   37.41900000   37.74500000
 C     0     41.74800000   39.26300000   28.96500000
 O     0     38.51400000   38.38900000   36.52000000
 C     0     40.63900000   38.78100000   29.69100000
 O     0     34.76400000   32.61200000   38.91100000
 C    -1     44.24700000   39.89000000   28.71200000
 C    -1     35.03000000   33.81800000   39.33400000
 C     0     36.18200000   34.68400000   38.86600000
 C     0     35.94000000   36.13800000   38.88800000
 C     0     36.93300000   37.00400000   38.56000000
 C     0     38.22500000   36.56000000   38.23800000
 C     0     38.43200000   35.16100000   38.05900000
 C     0     37.43400000   34.22400000   38.38000000
 C     0     39.30400000   37.55900000   37.93200000
 H     0     39.28000000   39.61200000   34.98700000
 H     0     40.42500000   38.32700000   35.70700000
 H     0     38.91400000   36.61400000   34.47300000
 H     0     37.99700000   38.02100000   33.75300000
 H     0     42.30700000   38.09800000   32.60700000
 H     0     44.21500000   38.99500000   31.15100000
 H     0     41.46500000   39.58100000   27.94100000
 H     0     39.66700000   38.92000000   29.27900000
 H     0     35.05900000   36.49700000   39.29500000
 H     0     36.57800000   38.08700000   38.51900000
 H     0     39.36200000   34.82400000   37.61700000
 H     0     37.63200000   33.14600000   38.28100000
 H     0     29.19614798   43.10987810   37.55675554
 H     0     29.28909086   44.92530404   37.15650636
 H     0     33.49552526   33.97262229   40.58060727
 H     0     44.76446698   40.94004154   27.07760524
 H     0     41.44496449   33.31755718   35.59740594
 H     0     34.13629786   44.69593631   34.94296959
 H     0     36.89019248   39.23051139   45.26626665
 H     0     36.57017120   37.63764644   45.90925520
 H     0     42.97862501   37.45423395   41.49076898
 H     0     43.89609161   34.42386070   33.69792034
 H     0     36.41565718   45.28078951   34.13218121
 H     0     44.82640490   43.62287855   40.76454127
 H     0     43.66938603   36.86035905   36.44956107

 1 2 1.0 3 1.0 153 1.0
 2
 3 4 1.0 5 1.0 8 1.0
 4
 5 6 1.0 7 1.0 145 1.0
 6
 7
 8 9 2.0 150 1.0
 9
 10 11 1.0 12 1.0 152 1.0
 11
 12 13 1.0 14 1.0 32 1.0
 13
 14 15 1.0 17 1.0 16 1.0
 15
 16
 17 18 2.0 23 1.0
 18 19 1.0 20 1.0
 19
 20 21 1.0 22 1.0
 21
 22 23 1.5 28 1.5
 23 24 2.0
 24 25 1.0 26 1.5
 25
 26 27 1.0 30 1.5
 27
 28 29 1.0 30 2.0
 29
 30 31 1.0
 31
 32 33 2.0 34 1.5
 33
 34 36 1.0 35 1.0
 35
 36 37 1.0 38 1.0 43 1.0
 37
 38 40 1.0 41 1.0 39 1.0
 39
 40
 41
 42 98 1.0
 43 44 2.0 45 1.5
 44
 45 47 1.0 46 1.0
 46
 47 48 1.0 49 1.0 149 1.0
 48
 49 50 1.0 51 1.0 52 1.0
 50
 51
 52 53 1.0 54 1.0 55 1.0
 53
 54
 55 56 1.0
 56 57 1.0 58 1.0 59 1.0
 57
 58
 59
 60 61 1.0 62 1.0 147 1.0 148 1.0
 61
 62 63 1.0 64 1.0 65 1.5
 63
 64
 65 66 2.0 71 1.5
 66 67 1.0 68 1.5
 67
 68 70 1.0 69 1.0
 69
 70 71 1.5 76 1.5
 71 72 2.0
 72 73 1.0 74 1.5
 73
 74 75 1.0 78 1.5
 75
 76 77 1.0 78 1.5
 77
 78 79 1.0
 79
 80 81 1.0 82 1.0 141 1.0 142 1.0
 81
 82 85 1.0 84 1.0 83 1.0
 83
 84
 85 86 1.5 87 1.5
 86
 87
 88 89 1.0 90 1.0 101 1.0 146 1.0
 89
 90 91 1.0 92 1.0 95 1.0
 91
 92
 93 94 1.0 95 1.0 96 1.5
 94
 95 99 2.0
 96 97 1.0 98 2.0
 97
 98 99 1.0
 99 100 1.0
 100
 101 102 2.0 151 1.0
 102
 103 105 1.0 117 1.0 129 1.0 130 1.0
 104 105 1.0 107 1.0
 105 132 1.0 131 1.0
 106 120 2.0
 107 109 1.0 110 2.0
 108 120 1.5 144 1.0
 109 111 1.5 118 1.5
 110
 111 112 1.5 133 1.0
 112 114 1.5 134 1.0
 113 121 1.5 143 1.0
 114 116 1.5 120 1.0
 115 128 2.0
 116 118 1.5 135 1.0
 117
 118 136 1.0
 119 121 1.5
 120
 121 122 1.0
 122 123 1.0 127 1.5
 123 124 2.0 137 1.0
 124 125 1.5 138 1.0
 125 126 1.5 128 1.0
 126 127 1.5 139 1.0
 127 140 1.0
 128
 129
 130
 131
 132
 133
 134
 135
 136
 137
 138
 139
 140
 141
 142
 143
 144
 145
 146
 147
 148
 149
 150
 151
 152
 153

B 41 42 F
B 42 117 F
B 117 128 F
B 128 41 F

PDENS=7.0




