# m062x/Def2SVP nosymm scf=xqc opt guess=mix freq=noraman

radical calculation of fragment 2 from fragment pair [17, 84] and s12but.com

0 3
C       6.715288    8.929904    3.228588
C       6.078697    7.860272    4.117921
C       4.613350    7.742771    3.816690
C       5.764631    7.156268    6.582922
C       6.426223    5.826032    6.370619
C       5.802054    4.711719    6.018847
C       5.974566    7.642968    8.021763
C       6.308130    8.196077    5.595772
C       5.400299    6.719901    9.103378
C       3.915200    6.574802    8.942953
C       5.293857    6.387207   11.663581
C       5.952509    5.040399   11.596953
C       5.315579    3.885601   11.472502
C       5.613233    7.082385   12.992596
C       5.744365    7.269591   10.493037
C       5.138995    6.330894   14.242457
C       3.648493    6.156503   14.223208
C       5.238786    6.386735   16.823738
C       5.920084    5.052307   16.909206
C       5.301174    3.885563   17.011137
C       5.641643    7.278779   18.004238
C       5.580134    7.085898   15.502278
C       5.282048    6.719082   19.385982
C       3.799396    6.522147   19.509502
C       5.573505    7.167669   21.913587
C       6.291336    5.869935   22.143512
C       5.711264    4.725953   22.474923
C       6.042957    8.232028   22.912414
C       5.795930    7.663311   20.479654
C       5.797865    7.884248   24.385007
C       4.334145    7.691009   24.653293
C       6.358366    8.984964   25.287488
H       6.590357    8.686676    2.173324
H       7.782227    9.023817    3.438502
H       6.250914    9.902942    3.407370
H       6.546932    6.895589    3.902542
H       4.692365    7.031782    6.406019
H       7.505192    5.808198    6.525849
H       4.729402    4.702911    5.859418
H       6.335440    3.779594    5.881291
H       5.524048    8.636619    8.126532
H       7.048532    7.769331    8.200529
H       5.844467    9.165371    5.812460
H       7.383495    8.322584    5.765545
H       5.850633    5.729031    8.995602
H       4.212521    6.238093   11.595547
H       7.040985    5.046543   11.657850
H       4.233446    3.852342   11.410210
H       5.847725    2.943717   11.429228
H       5.160679    8.080652   12.985193
H       6.696478    7.233930   13.063013
H       5.290919    8.261184   10.604837
H       6.828806    7.416036   10.555279
H       5.595517    5.336998   14.250059
H       4.158973    6.217762   16.863355
H       7.009632    5.078742   16.882392
H       4.218436    3.832149   17.040499
H       5.849133    2.953561   17.068758
H       5.165322    8.258481   17.883175
H       6.723066    7.453058   17.965616
H       5.118658    8.080098   15.500275
H       6.663257    7.247123   15.455216
H       5.764004    5.744823   19.507522
H       4.504141    6.993087   22.063751
H       7.373967    5.903935   22.019580
H       4.636132    4.665260   22.603429
H       6.284494    3.819971   22.626191
H       5.536683    9.177280   22.685214
H       7.114230    8.411845   22.766443
H       5.308875    8.638417   20.364642
H       6.867761    7.832126   20.324602
H       6.310209    6.944987   24.611977
H       5.848604    9.932817   25.097513
H       7.423499    9.133830   25.101507
H       6.222504    8.735308   26.339898
C       3.783050    6.581198   25.120908
H       3.702155    8.553097   24.441277
H       4.385968    5.705309   25.333889
H       2.718796    6.507466   25.304170
C       3.199701    5.362215   19.732308
H       2.122768    5.284339   19.811873
H       3.776591    4.450417   19.841395
H       3.195961    7.423821   19.402839
H       3.068081    7.079280   14.212269
C       3.280573    5.435833    8.708982
H       3.341545    7.497665    9.031325
H       3.827431    4.503895    8.616646
H       2.203870    5.395758    8.602671
C       4.016500    6.663547    3.333836
H       4.021846    8.635862    4.016795
H       4.578144    5.758103    3.131892
H       2.954252    6.645041    3.126640


