# m062x/Def2SVP nosymm scf=xqc opt guess=mix freq=noraman

Low energy conformation from file tests/test_data/gausslog2com/s12but_17_84_f2.log

0  3
C                   6.641666    8.847664    3.133623
C                   6.016160    7.802874    4.062351
C                   4.541207    7.677796    3.792038
C                   5.738057    7.156684    6.553098
C                   6.364446    5.803987    6.349900
C                   5.703659    4.689956    6.035631
C                   5.988853    7.666188    7.979273
C                   6.276021    8.167099    5.530328
C                   5.438737    6.765994    9.093808
C                   3.948851    6.601803    8.965483
C                   5.380797    6.475417   11.660129
C                   6.009022    5.110199   11.588964
C                   5.338238    3.959592   11.633579
C                   5.729101    7.174838   12.982284
C                   5.808119    7.341198   10.468908
C                   5.329758    6.386344   14.243984
C                   3.906718    5.989387   14.226375
C                   5.322754    6.473286   16.828330
C                   5.963032    5.114639   16.915268
C                   5.305283    3.957249   16.854817
C                   5.710921    7.344038   18.029310
C                   5.696608    7.175799   15.514843
C                   5.318756    6.763037   19.395631
C                   3.829922    6.567509   19.486874
C                   5.547347    7.162556   21.942304
C                   6.206467    5.828581   22.164740
C                   5.569659    4.695975   22.461672
C                   6.029299    8.189446   22.976488
C                   5.820837    7.676657   20.521941
C                   5.743606    7.819148   24.438148
C                   4.266825    7.649145   24.671495
C                   6.313326    8.883579   25.380367
H                   6.495102    8.576978    2.078865
H                   7.721399    8.943171    3.321486
H                   6.183126    9.835869    3.296495
H                   6.480845    6.823962    3.858790
H                   4.650755    7.050853    6.403243
H                   7.455466    5.763235    6.477304
H                   4.617833    4.702921    5.904456
H                   6.219662    3.736762    5.902297
H                   5.545995    8.673322    8.079266
H                   7.075990    7.792781    8.129344
H                   5.827638    9.155487    5.737117
H                   7.364016    8.286761    5.679813
H                   5.897197    5.767815    8.997673
H                   4.286726    6.341741   11.622974
H                   7.104995    5.092182   11.509405
H                   4.247340    3.953454   11.719354
H                   5.848882    2.995321   11.593295
H                   5.232282    8.160659   13.000693
H                   6.815476    7.372156   13.019323
H                   5.356455    8.343776   10.574281
H                   6.901954    7.491158   10.507857
H                   5.915467    5.450514   14.251701
H                   4.229563    6.328284   16.838576
H                   7.056908    5.107850   17.021155
H                   4.216833    3.940001   16.743279
H                   5.824619    2.998233   16.907653
H                   5.247322    8.340044   17.913903
H                   6.803085    7.509755   18.015336
H                   5.194989    8.158941   15.485819
H                   6.782469    7.379047   15.502415
H                   5.795639    5.774967   19.505516
H                   4.459885    7.026089   22.063577
H                   7.301332    5.819259   22.067744
H                   4.480700    4.677549   22.562821
H                   6.109070    3.758123   22.610262
H                   5.557073    9.163827   22.756803
H                   7.116672    8.341277   22.854114
H                   5.356838    8.672933   20.409779
H                   6.908003    7.828775   20.398048
H                   6.232610    6.855147   24.655349
H                   5.829193    9.857172   25.204151
H                   7.394064    9.011734   25.219614
H                   6.148462    8.609734   26.431600
C                   3.680641    6.539092   25.117665
H                   3.649327    8.531896   24.455220
H                   4.268116    5.642576   25.335731
H                   2.601893    6.485662   25.277224
C                   3.217287    5.393884   19.640520
H                   2.129283    5.319196   19.697020
H                   3.794792    4.467790   19.713022
H                   3.226374    7.483296   19.414823
H                   2.969597    6.548720   14.218117
C                   3.315107    5.440810    8.801684
H                   3.363451    7.530569    9.018656
H                   3.874072    4.502187    8.747195
H                   2.227476    5.389260    8.718476
C                   3.932512    6.585870    3.331502
H                   3.945814    8.579254    3.992560
H                   4.497297    5.671454    3.128332
H                   2.856972    6.565569    3.144937


