# m062x/Def2TZVP nosymm scf=xqc opt freq=NoRaman

Conformation from step number 25 in file tests/test_data/gausslog2com/ti_eg5_mipa_tsa_ircr_opt_tsa_ts_ircf_opt_tsa_ts.log

0  1
O                   2.564097    0.865532    0.465127
Ti                  1.045714   -0.299685    1.295300
O                   1.228060   -1.206071   -2.847306
O                   2.349399   -1.717261    1.484470
O                   0.053790    1.228087    1.166345
C                   0.195705    2.561100    0.769217
C                   0.728319    3.390986    1.927329
C                   3.956347    0.818783    0.688979
C                   4.349880    1.902176    1.679148
O                   5.718280    1.809420    2.031462
C                   2.622432   -2.085578    2.813707
C                   2.889748   -0.810433    3.598154
O                   1.912417    0.164346    3.178889
C                   2.583326   -1.641427   -2.950468
C                   3.233899   -2.065173   -1.644778
O                   2.402296   -2.989296   -0.948810
H                   4.250714   -0.162430    1.073768
H                   4.481419    0.979817   -0.260111
H                   4.108633    2.885984    1.262900
H                   3.776482    1.777661    2.598648
H                   3.422477   -1.196915   -1.011256
H                   1.761189   -2.609710    3.245896
H                   3.492751   -2.745507    2.867285
H                   2.825309   -0.954728    4.676001
H                   3.867001   -0.397370    3.348686
H                   0.893818    2.633890   -0.073362
H                  -0.773560    2.948963    0.440956
H                   1.618231    2.896196    2.330846
H                  -0.019508    3.450564    2.719257
O                   1.004447    4.723569    1.534775
H                   2.562501   -2.849971    0.005691
H                   1.645951    4.703173    0.816417
H                   6.252402    2.030775    1.261618
H                   1.153896    0.228436    3.819745
O                   1.896108    0.725176   -1.824318
H                   1.078435   -1.856367   -0.755271
C                   0.956167   -0.176468   -1.944421
O                   0.761508   -0.930952   -0.610846
C                  -0.430966    0.359810   -2.267249
C                  -1.536368   -0.478453   -2.225980
C                  -2.960033    1.358329   -2.873957
C                  -2.797835    0.016586   -2.528072
H                  -1.426833   -1.520063   -1.952714
C                  -3.950789   -0.923165   -2.462794
H                  -3.944204    1.740953   -3.104761
O                  -3.859681   -2.091714   -2.178737
O                  -5.114420   -0.335766   -2.750490
H                   3.196940   -0.858500   -3.399719
H                   4.195131   -2.525535   -1.888621
H                   2.536189   -2.489049   -3.632922
O                  -0.275525   -1.231205    2.118080
C                  -1.457921   -0.912970    2.794848
C                  -1.200217   -0.773011    4.280592
O                  -0.313011    0.311737    4.572306
H                   2.296291    0.849827   -0.644345
H                  -0.706760   -1.668563    4.657440
H                  -2.141531   -0.634791    4.815891
H                  -0.748024    1.143856    4.349044
H                  -1.874484    0.021935    2.399233
H                  -2.191648   -1.710127    2.642640
C                  -6.278160   -1.174510   -2.734759
H                  -6.121024   -2.013616   -3.412859
H                  -6.439509   -1.553377   -1.724841
C                  -7.429358   -0.312993   -3.188845
H                  -7.557290    0.525949   -2.498067
H                  -8.341421   -0.908793   -3.176942
O                  -7.250558    0.146085   -4.514928
H                  -6.443776    0.672602   -4.540785
C                  -0.592165    1.693305   -2.610464
C                  -1.855321    2.191513   -2.914015
H                  -1.974657    3.233429   -3.179683
H                   0.277668    2.336038   -2.631331


