# geom=allcheck guess=read m062x/Def2TZVP nosymm scf=xqc opt=ReadFC freq=NoRaman

from pet trimer from Brandon, opt with m062x/6-31+g(d,p)

0 1
O    3.312881    6.400559   -1.437050
H    4.231686    6.165093   -1.280276
C   -0.372391    2.459778    4.972146
H   -0.593670    1.531015    5.478121
C    0.380684    2.464883    3.811246
H    0.762909    1.546778    3.385946
O    1.903542    2.596909    1.441345
C    2.451224    4.840779    0.181658
H    1.944566    4.262878   -0.591966
H    3.424544    4.379459    0.365950
C    2.593347    6.292493   -0.229477
H    1.608107    6.720354   -0.413558
H    3.061960    6.863409    0.578528
C    0.658407    3.666607    3.168670
C    1.474895    3.610878    1.920041
O   -1.873347    2.504987    7.273404
C   -0.847407    3.661601    5.489440
C   -1.662649    3.718949    6.735632
O    1.682727    4.820758    1.385687
C    0.182950    4.868149    3.685770
H    0.404130    5.795922    3.177934
C   -0.569862    4.863635    4.846831
H   -0.952274    5.782075    5.271266
O   -2.092467    4.727948    7.221186
O   -3.383522   -1.207443    10.269529
C   -2.750550    1.050831    8.881925
H   -1.771187    0.619816    9.089455
H   -3.253097    0.448388    8.125290
C   -3.742114   -0.142763    10.624913
C   -2.648950    2.498030    8.468493
H   -2.158750    3.096268    9.237112


