# b3lyp//GEN pseudo=read nosymm scf=(xqc,maxconventionalcycles=400) opt freq=NoRaman CPHF=Grid=Fine

optimization of fragment 1 from fragment pair [19, 40] and tests/test_data/gauss_fragment/2011shi_fig5cts_origts_ircf_opt.log

0 1
C         -4.958666    0.663919    0.938357
O         -6.208459    0.206087    0.732483
C         -7.257729    0.842001    1.495062
C         -8.565495    0.184480    1.117682
O         -4.699506    1.555620    1.711098
H         -7.255792    1.909307    1.268430
H         -7.034383    0.729262    2.557096
H         -8.549740   -0.881521    1.348660
H         -8.772295    0.304513    0.053360
H         -9.381636    0.643776    1.678459
O         -1.202243   -2.991930   -2.916882
C         -0.949712   -2.040893   -2.214301
C         -1.966449   -1.320580   -1.390578
C         -3.301379   -1.710075   -1.513321
C         -4.285415   -1.079422   -0.770213
C         -3.943138   -0.050313    0.110684
C         -2.607696    0.335095    0.235159
C         -1.621334   -0.293204   -0.509151
H         -0.589402    0.007788   -0.402460
H         -2.355558    1.129773    0.923563
H         -5.318286   -1.380399   -0.867819
H         -3.549142   -2.510641   -2.196735
O          0.279079   -1.513279   -2.082034
C          1.359307   -2.142345   -2.810193
C          1.467123   -1.602038   -4.222930
H          2.332542   -2.047563   -4.718713
H          1.599642   -0.519112   -4.215314
H          0.578497   -1.846624   -4.804294
H          1.198879   -3.219873   -2.811670
H          2.245236   -1.903459   -2.224075

C O H 0
Def2TZVP
****
Ti 0
lanl2dz
****

Ti 0
lanl2dz


