# m062x/Def2TZVP nosymm scf=xqc opt=ReadFC geom=allcheck guess=read CPHF=Grid=Fine

recreated from a cp.log

0 1
C        51.099712   20.356653   13.925115
C        50.167641   20.380328   15.146632
C        48.756059   20.840975   14.740329
C        47.977213   21.577790   15.837116
C        46.600668   22.014383   15.319453
C        45.733536   22.767167   16.345370
C        44.819781   23.781248   15.639742
C        47.881245   20.794366   17.074217
C        50.128280   19.070029   15.805962
H        48.850930   21.531319   13.899039
H        48.180571   19.982137   14.390506
H        46.775971   22.675533   14.467749
H        46.052442   21.146975   14.947807
H        46.383667   23.316801   17.034714
C        44.952611   21.832494   17.163640
N        47.828576   20.218927   18.063470
H        48.539504   22.479514   16.104875
H        50.632192   19.788919   13.117811
C        52.510834   19.803741   14.194534
H        51.197696   21.388193   13.580563
H        44.275743   23.285341   14.833079
H        45.470194   24.528122   15.179798
C        43.825074   24.510909   16.560649
C        52.549982   18.347705   14.013013
H        52.787595   20.008553   15.232843
C        53.545836   20.445034   13.262826
C        42.570572   23.758510   16.681825
C        43.509195   25.916037   16.035014
H        44.252951   24.591296   17.564179
H        50.581560   21.084455   15.876608
N        50.112669   18.034562   16.295582
N        44.316630   21.112156   17.787195
H        43.110342   25.858515   15.021955
H        44.418225   26.516977   16.020307
H        42.771815   26.409445   16.665172
H        53.269988   20.277784   12.221382
H        54.533357   20.018471   13.427582
H        53.591107   21.518473   13.445473
N        52.609499   17.223839   13.798296
N        41.560840   23.218444   16.720528



