# m062x/Def2SVP nosymm scf=xqc opt guess=mix freq=noraman CPHF=Grid=Fine

radical calculation of fragment 1 from fragment pair [18, 16] and tests/test_data/gauss_fragment/pet_dimer_tzvp.com

0 2
O          3.311154    6.381109   -1.436288
H          4.228087    6.137474   -1.281017
C         -0.382044    2.461418    4.981603
H         -0.606457    1.534400    5.489467
C          0.368842    2.462169    3.819195
H          0.746395    1.541946    3.394287
O          1.887535    2.586042    1.445178
C          2.442979    4.826156    0.183978
H          1.931945    4.250858   -0.588746
H          3.414190    4.359611    0.366432
C          2.592434    6.276943   -0.227745
H          1.609353    6.710184   -0.410723
H          3.065176    6.845448    0.579562
C          0.650405    3.662012    3.174702
C          1.464116    3.601825    1.924868
C         -0.851128    3.665673    5.498574
C         -1.664000    3.726833    6.747081
O          1.676724    4.810722    1.389151
C          0.180844    4.866049    3.691540
H          0.404897    5.792405    3.182358
C         -0.569773    4.865711    4.854042
H         -0.947674    5.786034    5.278447
O         -2.087591    4.740004    7.231044


