# m062x/Def2TZVP nosymm scf=xqc opt freq

radical calculation of fragment 2 from fragment pair [22, 23] and tests/test_data/gauss_fragment/pet_mono_1_tzvp.com

0 2
O       3.601135    6.855796    0.997706
H       3.115034    6.739670    1.820294
C      -0.707784    2.428652    4.725402
H      -1.020328    1.490331    5.161021
C       0.064082    2.448379    3.576867
H       0.372014    1.532059    3.091612
O       1.590367    2.611379    1.211502
C       2.476652    4.874278    0.189812
H       1.915038    4.447272   -0.642497
H       3.373719    4.277065    0.355894
C       2.820754    6.323321   -0.047612
H       3.414902    6.402771   -0.958080
H       1.900093    6.900475   -0.189310
C       0.457443    3.662702    3.024625
C       1.289402    3.621062    1.785921
O      -2.198368    2.442401    7.028066
C      -1.089069    3.628137    5.319983
C      -1.922563    3.667843    6.557871
O       1.668500    4.839164    1.375131
C       0.074195    4.861819    3.618354
H       0.377476    5.801031    3.178360
C      -0.700049    4.842729    4.765139
O      -2.305290    4.681516    7.075682
C      -2.124176    2.513059    9.442456
H      -2.750411    2.457350   10.333422
H      -1.629639    3.489422    9.433711
C      -3.001676    2.378083    8.217755
H      -3.759769    3.159634    8.187830
H      -3.464092    1.393319    8.189697
O      -1.190670    1.459598    9.535548
H      -0.636422    1.478382    8.749118


