# m062x/Def2SVP nosymm scf=xqc opt guess=mix freq=noraman CPHF=Grid=Fine

radical calculation of fragment 2 from fragment pair [14, 15] and tests/test_data/gauss_fragment/pet_mono_1_tzvp.com

0 2
C         -0.707784    2.428652    4.725402
H         -1.020328    1.490331    5.161021
C          0.064082    2.448379    3.576867
H          0.372014    1.532059    3.091612
C          0.457443    3.662702    3.024625
O         -2.198368    2.442401    7.028066
C         -1.089069    3.628137    5.319983
C         -1.922563    3.667843    6.557871
C          0.074195    4.861819    3.618354
H          0.377476    5.801031    3.178360
C         -0.700049    4.842729    4.765139
H         -1.014503    5.759298    5.245717
O         -2.305290    4.681516    7.075682
C         -2.124176    2.513059    9.442456
H         -2.750411    2.457350   10.333422
H         -1.629639    3.489422    9.433711
C         -3.001676    2.378083    8.217755
H         -3.759769    3.159634    8.187830
H         -3.464092    1.393319    8.189697
O         -1.190670    1.459598    9.535548
H         -0.636422    1.478382    8.749118


