# m062x/Def2TZVP nosymm scf=xqc opt freq=NoRaman CPHF=Grid=Fine SCRF=(Solvent=1,2-EthaneDiol,Read)

optimization of fragment 1 from fragment pair [37, 38] and tests/test_data/gauss_fragment/tieg5ipatse_ts_ircr_optts.com

0 1
O          0.299612   -1.445353   -3.050893
C          1.660347   -1.800017   -3.286952
C          2.461036   -2.104668   -2.035056
O          1.777308   -3.050764   -1.223187
H          2.635257   -1.191390   -1.464465
H          2.007984   -2.838253   -0.298842
O          0.928798    0.586115   -2.322576
C          0.065974   -0.329703   -2.297376
C         -1.700182    1.389407   -2.753966
C         -1.389074    0.066548   -2.477266
C         -3.023634    1.778156   -2.934865
C         -2.405645   -0.873857   -2.386675
C         -4.040392    0.843507   -2.842381
C         -3.727028   -0.488130   -2.568496
H         -2.179373   -1.909566   -2.170155
C         -4.781207   -1.530205   -2.458869
H         -5.071294    1.137342   -2.980898
O         -4.569696   -2.693604   -2.223476
O         -6.016507   -1.051147   -2.649413
H         -6.640894   -1.787241   -2.562699
H          2.165576   -1.005157   -3.838111
H          3.431681   -2.498464   -2.351070
H          1.598029   -2.686490   -3.916577
H         -3.257960    2.812417   -3.148916
H         -0.895784    2.108601   -2.827928

PDENS=7.0


