# m062x/Def2TZVP nosymm scf=xqc opt freq=NoRaman CPHF=Grid=Fine SCRF=(Solvent=1,2-EthaneDiol,Read)

radical calculation of fragment 2 from fragment pair [37, 38] and tests/test_data/gauss_fragment/tieg5ipatse_ts_ircr_optts.com

0 2
O       1.925781    0.874766   -0.031304
Ti       0.571273   -0.369644    1.077273
O       1.998411   -1.650490    1.169531
O      -0.390406    1.170925    1.238856
C      -0.115794    2.536908    1.364665
C      -0.393834    3.248260    0.049915
C       3.341659    0.923499    0.006838
C       3.772910    2.097231    0.869043
O       5.176955    2.119836    1.045358
C       2.509764   -1.929284    2.447978
C       2.783914   -0.595852    3.125067
O       1.685011    0.273234    2.798743
H       3.736388   -0.010836    0.414403
H       3.726147    1.041664   -1.011083
H       3.405429    3.030374    0.430109
H       3.329734    1.996475    1.860832
H       1.773880   -2.495973    3.031773
H       3.429231   -2.517140    2.382105
H       2.879608   -0.683772    4.206764
H       3.683794   -0.130048    2.723137
H      -0.744930    2.965424    2.154423
H       0.932423    2.692461    1.641776
H      -1.434422    3.080444   -0.246277
H       0.250481    2.829170   -0.723869
O      -0.096141    4.630977    0.135197
H      -0.729660    5.047039    0.728917
H       5.592795    2.337717    0.204660
H       1.018818    0.314721    3.535586
H       0.321938   -1.952004   -0.869681
O       0.038796   -1.025774   -0.725592
O      -0.556279   -1.351862    2.102401
C      -1.629946   -1.053120    2.950508
C      -1.155110   -0.855173    4.374799
O      -0.315318    0.295980    4.510403
H       1.572322    0.818521   -0.983780
H      -0.546878   -1.704448    4.685282
H      -2.011225   -0.768280    5.046755
H      -0.842636    1.090789    4.363512
H      -2.140413   -0.146315    2.603637
H      -2.345934   -1.880107    2.934178


