# m062x/Def2TZVP nosymm scf=xqc opt freq=NoRaman SCRF=(Solvent=1,2-EthaneDiol,Read) CPHF=Grid=Fine

Last conformation from file tpaegh1ats_ts_ircf_opt.log

1  1
H             -1.210355    0.721563   -2.341881
H             -1.802218   -2.980202    0.108404
C             -1.016549    0.817156   -1.283661
H             -0.127304   -1.117851   -1.121365
C             -0.573674    1.065232    1.457758
C             -0.166179   -0.079402    0.768902
C             -0.390285   -0.209821   -0.601165
C             -1.399432    1.969018   -0.603912
C             -1.178462    2.094484    0.762547
C              0.480666   -1.129529    1.558856
H             -0.400571    1.150006    2.521144
O             -0.872060   -3.035265    0.352050
O              0.047433   -1.283382    2.756964
H              1.612575   -2.424553   -0.737736
C              2.159794   -1.782375   -0.050817
O              4.182575   -2.289277   -1.062219
H              2.178087   -0.753815   -0.404665
H             -0.744807   -3.935628    0.669818
O              1.475481   -1.842339    1.228377
C              3.555655   -2.308324    0.200471
H              5.087396   -2.601762   -0.966000
H              3.496846   -3.319480    0.611489
H              4.067392   -1.663629    0.919726
H              0.564859   -1.945994    3.251191
C             -2.067334    3.105339   -1.310842
O             -2.238846    2.874464   -2.612021
H             -2.674727    3.644941   -3.007999
O             -2.413128    4.119091   -0.764851
H             -1.488078    2.996895    1.270579

PDENS=7.0





