# m062x/Def2SVP nosymm scf=xqc opt

narrow results from confab

0 1
O           3.352   6.380  -1.431
H           4.278   6.201  -1.243
O           3.353   3.801   2.530
C           2.456   4.816   0.156
H           1.932   4.246  -0.611
H           3.423   4.346   0.349
C           2.603   6.270  -0.243
H           1.620   6.693  -0.447
H           3.048   6.838   0.580
C           2.275   4.266   2.421
O           1.678   4.793   1.380



