# m062x/Def2SVP nosymm scf=xqc opt

narrow results from confab

0 1
O           3.223   7.030   0.751
H           2.639   7.113   1.509
C          -0.379   2.476   4.986
H          -0.602   1.552   5.500
C           0.372   2.472   3.824
H           0.750   1.550   3.403
O           1.890   2.586   1.448
C           2.451   4.822   0.182
H           1.954   4.228  -0.587
H           3.427   4.371   0.377
C           2.582   6.269  -0.247
H           3.206   6.333  -1.139
H           1.595   6.671  -0.498
C           0.652   3.669   3.173
C           1.465   3.603   1.924
O          -2.400   2.646   6.941
C          -0.850   3.682   5.498
C          -1.663   3.747   6.747
O           1.676   4.810   1.382
C           0.181   4.874   3.685
H           0.405   5.799   3.171
C          -0.569   4.879   4.847
H          -0.948   5.801   5.268
O          -1.665   4.681   7.502
C          -2.296   2.280   9.277
H          -2.878   2.220  10.197
H          -1.537   3.057   9.410
C          -3.206   2.642   8.120
H          -3.654   3.625   8.268
H          -4.015   1.916   8.004
O          -1.720   1.008   9.079
H          -1.090   1.056   8.355



