# m062x/Def2SVP nosymm scf=xqc opt

narrow results from confab

0 1
O           1.338   6.852  -0.456
H           0.971   6.524  -1.283
O           3.353   3.801   2.530
C           2.456   4.816   0.156
H           1.932   4.246  -0.611
H           3.423   4.346   0.349
C           2.603   6.270  -0.243
H           3.074   6.824   0.568
H           3.248   6.350  -1.124
C           2.275   4.266   2.421
O           1.678   4.793   1.380



