# m062x/Def2SVP nosymm scf=xqc opt

narrow results from confab

0 1
O           1.338   6.852  -0.456
H           0.971   6.524  -1.283
O           1.783   2.538   1.508
C           2.456   4.816   0.156
H           1.932   4.246  -0.611
H           3.423   4.346   0.349
C           2.603   6.270  -0.243
H           3.074   6.824   0.568
H           3.248   6.350  -1.124
C           1.454   3.606   1.886
O           1.678   4.793   1.380
H           0.899   3.604   2.757



